Reference Codes
==================================

CFD (Computational Fluid Dynamics) is a method of simulating physical phenomena such as fluid motion, heat and mass transfer using computer algorithms. CFD can be used to predict and optimize fluid dynamic phenomena such as gas and liquid flows, combustion processes, heat transfer, and aerodynamics. It is widely used in various engineering fields, such as aviation, automotive, energy, construction, environmental, biomedical, as well as scientific research and development. CFD technology typically requires knowledge from multiple disciplines such as numerical analysis, mathematics, physics, and computer science to study and apply.

Open-Source CFD codes
----------------------
#. `An overview of both free and commercial CFD software <https://www.cfd-online.com/Wiki/Codes>`_
#. `OpenFOAM <https://www.openfoam.com/>`_
#. `SU2 <https://su2code.github.io/>`_
#. `Nek5000 <https://nek5000.mcs.anl.gov/>`_
#. `Code_Saturne <https://www.code-saturne.org/>`_
#. `OpenLB <https://www.openlb.net/>`_
#. `FEniCS Project <https://fenicsproject.org/>`_
#. `LIGGGHTS <https://www.liggghts.com/>`_
#. `ADFC <https://adfc.sourceforge.net/>`_
#. `Partenov CFD <https://www.partenovcfd.com/>`_
#. `arb multiphysics finite volume solver <https://people.eng.unimelb.edu.au/daltonh/downloads/arb/>`_
#. `CalculiX-A Free Software Three-Dimensional Structural Finite Element Program <http://www.dhondt.de/>`_
#. `CaNS <https://github.com/CaNS-World/CaNS/>`_
#. `CFD2D <https://sourceforge.net/projects/cfd2d/>`_
#. `CFD2k <https://sourceforge.net/projects/cfd2k/>`_
#. `CLAWPACK <http://depts.washington.edu/clawpack/>`_
#. `COOLFluiD <https://github.com/andrealani/COOLFluiD/wiki/>`_
#. `DUNS <https://duns.sourceforge.net/>`_
#. `Dolfyn <https://www.dolfyn.net/>`_
#. `Dune <https://www.dune-project.org/>`_
#. `Edge <https://docs.snic.se/wiki/Edge>`_
#. `ELMER <https://www.csc.fi/web/elmer/>`_
#. `FLUBIO-PETSc <https://flubiopetsc.github.io/flubiopetsc/>`_
#. `Fluidsim Document <https://fluidsim.readthedocs.io/>`_
#. `Fluidsim <https://foss.heptapod.net/fluiddyn/fluidsim/>`_
#. `FreeFEM <https://freefem.org/>`_
#. `Gerris Flow Solver <https://gfs.sourceforge.net/>`_
#. `HiFlow3 <http://www.hiflow3.org/>`_
#. `IBAMR <https://github.com/IBAMR/IBAMR/>`_
#. `IMTEK Mathematica Supplement <https://www.imtek.uni-freiburg.de/simulation/mathematica/IMSweb/>`_
#. `iNavier <https://inavier.sourceforge.net/>`_
#. `ISAAC <https://isaac-cfd.sourceforge.net/>`_
#. `KRATOS Multiphysics <https://github.com/KratosMultiphysics/Kratos/wiki/>`_
#. `MFIX <https://mfix.netl.doe.gov/>`_
#. `Nektar++ <https://www.nektar.info/>`_
#. `NUWTUN <https://github.com/cpraveen/nuwtun/>`_
#. `OneFLOW <https://github.com/eric2003/OneFLOW/>`_
#. `OpenFlower <https://sourceforge.net/projects/openflower/>`_
#. `OpenHyperflow2D <https://github.com/sergeas67/openhyperflow2d/>`_
#. `OpenFVM <https://openfvm.sourceforge.net/>`_
#. `Palabos <https://palabos.unige.ch/>`_
#. `PETSc-FEM <https://cimec.org.ar/foswiki/Main/Cimec/PETScFEM/>`_
#. `FEATFLOW <http://www.mathematik.tu-dortmund.de/~featflow/en/index.html>`_
#. `PyFR <https://www.pyfr.org/>`_
#. `REEF3D <https://reef3d.wordpress.com/>`_
#. `ReFRESCO <https://www.marin.nl/en/facilities-and-tools/software/refresco/>`_
#. `Rheolef <https://membres-ljk.imag.fr/Pierre.Saramito/rheolef/html/index.html>`_
#. `Semtex <https://users.monash.edu.au/~bburn/semtex.html>`_
#. `SLFCFD <https://slfcfd.sourceforge.net/>`_
#. `SSIIM <https://folk.ntnu.no/nilsol/cfd/>`_
#. `TCLB <https://github.com/CFD-GO/TCLB/>`_
#. `Tochnog <https://tochnog.sourceforge.net/>`_
#. `TrioCFD <https://github.com/cea-trust-platform/TrioCFD-code/>`_
#. `TYCHO <http://tycho-cfd.at/>`_
#. `Typhon solver <https://typhon.sourceforge.net/spip/>`_
#. `Uintah Computational Framework <http://www.uintah.utah.edu/>`_
#. `MFEM <https://github.com/mfem/mfem/>`_
#. `GLVis <https://glvis.org/>`_
#. `AMReX: Software Framework for Block Structured AMR <https://github.com/AMReX-Codes/amrex/>`_
#. `Sparselizard <http://www.sparselizard.org/>`_
#. `SuperLU_DIST <https://github.com/xiaoyeli/superlu_dist/>`_
#. `PeleC: An adaptive mesh refinement solver for compressible reacting flows <https://github.com/AMReX-Combustion/PeleC/>`_
#. `Axom: CS infrastructure components for HPC applications <https://github.com/LLNL/axom/>`_
#. `libCEED: Efficient Extensible Discretization <https://github.com/CEED/libCEED/>`_
#. `HYPRE: Parallel solvers for sparse linear systems featuring multigrid methods <https://github.com/hypre-space/hypre/>`_
#. `Eigen  <https://eigen.tuxfamily.org/index.php?title=Main_Page>`_
#. `Taichi Lang: Productive & portable high-performance programming in Python. <https://github.com/taichi-dev/taichi>`_
#. `libMesh <http://libmesh.github.io/index.html>`_
#. `LAMMPS Molecular Dynamics Simulator <https://www.lammps.org/>`_
#. `SPARTA：Stochastic PArallel Rarefied-gas Time-accurate Analyzer. <https://github.com/sparta/sparta/>`_
#. `MAST: Multidisciplinary-design Adaptation and Sensitivity Toolkit <https://github.com/MASTmultiphysics/mast-multiphysics/>`_
#. `UCNS3D <https://ucns3d.com/>`_
#. `Albany: Sandia National Laboratories' Albany multiphysics code <https://github.com/sandialabs/Albany/>`_
#. `Lethe: CFD/DEM/CFD-DEM project <https://github.com/lethe-cfd/lethe/>`_
#. `HAMeRS: Hydrodynamics Adaptive Mesh Refinement Simulator <https://github.com/mlwong/HAMeRS/>`_
#. `blastFoam: high-explosive detonation, explosive safety and air blast <https://github.com/synthetik-technologies/blastfoam/>`_
#. `VPIC: Vector Particle-In-Cell (VPIC) Project <https://github.com/lanl/vpic/>`_
#. `BOUT++: Plasma fluid finite-difference simulation code in curvilinear coordinate systems <https://github.com/boutproject/BOUT-dev/>`_
#. `KaHIP: Karlsruhe HIGH Quality Partitioning. <https://github.com/KaHIP/KaHIP/>`_
#. `Elmer FEM. <https://github.com/ElmerCSC/elmerfem/>`_
#. `Geometric Tools Engine. <https://www.geometrictools.com/>`_
#. `MFiX: Open Source Multiphase Flow Modeling for Real-world Applications <https://mfix.netl.doe.gov/products/mfix/>`_
#. `ECOGEN: a CFD plateform written in C++ object oriented programming langage <https://github.com/code-mphi/ECOGEN/>`_
#. `machine-learning-applied-to-cfd <https://github.com/AndreWeiner/machine-learning-applied-to-cfd/>`_
#. `FEST-3D: Finite-volume Explicit STructured 3-Dimensional <https://github.com/FEST3D/FEST-3D/>`_
#. `CGAL: The Computational Geometry Algorithms Library <https://www.cgal.org/>`_
#. `MPI/C: Jacobi and Red-Black Gauss Seidel Poisson Solvers <https://github.com/rrsharma/MPI-C-Jacobi-and-Red-Black-Gauss-Seidel-Poisson-Solvers/>`_
#. `Pencil: A high-order finite-difference code for compressible hydrodynamic flows  <https://github.com/pencil-code/pencil-code/>`_
#. `Open CASCADE: an open-source full-scale 3D geometry library  <https://dev.opencascade.org/>`_
#. `OCCT: an open-source software development platform for 3D CAD, CAM, CAE  <https://github.com/Open-Cascade-SAS/OCCT/>`_
#. `CinoLib: a C++ library for processing polygonal and polyhedral meshes.  <https://github.com/mlivesu/cinolib/>`_
#. `OpenSCAD: a software for creating solid 3D CAD objects.  <https://github.com/openscad/openscad/>`_
#. `TetWild: Tetrahedral Meshing in the Wild.  <https://github.com/Yixin-Hu/TetWild/>`_
#. `NURBS-Python (geomdl): Object-oriented pure Python B-Spline and NURBS library.  <https://github.com/orbingol/NURBS-Python/>`_
#. `mmg: Surface and volume remeshers.  <https://github.com/MmgTools/mmg/>`_
#. `pyIGES: Python IGES Reader.  <https://github.com/pyvista/pyiges/>`_
#. `MathGeoLib: A C++ library for linear algebra and geometry manipulation for computer graphics. <https://github.com/juj/MathGeoLib/>`_
#. `libigl: A simple C++ geometry processing library. <https://github.com/libigl/libigl/>`_
#. `Mayo: the opensource 3D CAD viewer and converter. <https://github.com/fougue/mayo/>`_
#. `JAX-CFD: Computational Fluid Dynamics in JAX. <https://github.com/google/jax-cfd/>`_
#. `DualSPHysics: C++/CUDA/OpenMP based Smoothed Particle Hydrodynamics (SPH) Solver. <https://github.com/DualSPHysics/DualSPHysics/>`_
#. `SPHYSICS: SPH Free-surface Flow Solver. <https://wiki.manchester.ac.uk/sphysics/>`_
#. `FluidX3D: The fastest and most memory efficient lattice Boltzmann CFD software. <https://github.com/ProjectPhysX/FluidX3D/>`_
#. `HORSES: a High Order Spectral Element Solver. <https://github.com/horsescfd/HORSES2D/>`_




Grid generation
----------------------

#. `Delaundo <http://www.ae.metu.edu.tr/tuncer/ae546/prj/delaundo/>`_ 
#. `ENGRID <https://github.com/enGits/engrid/>`_ 
#. `GMSH <https://gmsh.info/>`_ 
#. `gridgen-c <https://github.com/sakov/gridgen-c/>`_ 
#. `IA-FEMesh <https://www.ccad.uiowa.edu/MIMX/projects/IA-FEMesh/>`_ 
#. `Netgen Mesh Generator <https://sourceforge.net/projects/netgen-mesher/>`_ 
#. `SALOME <https://www.salome-platform.org/>`_ 
#. `TETGEN <https://wias-berlin.de/software/index.jsp?id=TetGen&lang=1/>`_ 
#. `Triangle <http://www.cs.cmu.edu/~quake/triangle.html>`_ 
#. `TwinMesh <https://www.twinmesh.com/>`_ 
#. `GridPro <https://www.gridpro.com/>`_ 

 

Visualization
----------------------
#. `COVISE <https://www.hlrs.de/solutions/types-of-computing/visualization/covise/>`_ 
#. `DISLIN <https://www.mps.mpg.de/dislin/>`_ 
#. `GMV <http://generalmeshviewer.com/>`_ 
#. `Gnuplot <http://www.gnuplot.info/>`_ 
#. `GRI <https://gri.sourceforge.net/>`_ 
#. `Mayavi <https://mayavi.sourceforge.net/>`_ 
#. `ParaView <https://www.paraview.org/>`_ 
#. `VAPOR <http://www.vapor.ucar.edu/>`_ 
#. `Vigie <http://www-sop.inria.fr/sinus/Softs/vigie.html>`_
#. `Visit <https://visit-dav.github.io/visit-website/>`_
#. `Visnow <https://visnow.icm.edu.pl/>`_
#. `VTK <https://vtk.org/>`_
#. `Fieldview <https://www.ilight.com/>`_
#. `TECPLOT <https://www.tecplot.com/>`_
  

Famous CFD codes
----------------------

#. `NASA OVERFLOW Overset Grid CFD Flow Solver <https://overflow.larc.nasa.gov/>`_
#. `COMSOL Multiphysics <https://www.comsol.com/multiphysics/>`_
#. `Simcenter fluids and thermal simulation products <https://plm.sw.siemens.com/en-US/simcenter/fluids-thermal-simulation/>`_
#. `Airflow Sciences Corporation <https://www.airflowsciences.com/>`_

Closed-Source CFD codes
-------------------------

#. `flow3d <https://www.flow3d.com/>`_









